  Page 1                                    Mon Dec 21 17:11:12 2020

  ******************************************************************
  *                           E P A N E T                          *
  *                   Hydraulic and Water Quality                  *
  *                   Analysis for Pipe Networks                   *
  *                         Version 2.2                            *
  ******************************************************************
  
  Analysis begun Mon Dec 21 17:11:12 2020

   
  Hydraulic Status:
  -----------------------------------------------------------------------
     0:00:00: Balancing the network:

              Trial  1: relative flow change = 1.116052
              Trial  2: relative flow change = 0.812206
              Pipe P-36 switched from open to closed
              Pipe P-541 switched from open to closed
              Trial  3: relative flow change = 0.556420
              Trial  4: relative flow change = 0.804498
              Trial  5: relative flow change = 0.541483
              Trial  6: relative flow change = 0.324747
              Trial  7: relative flow change = 0.320323
              Trial  8: relative flow change = 0.133037
              Pipe P-36 switched from closed to open
              Pipe P-541 switched from closed to open
              Trial  9: relative flow change = 0.189673
              Trial 10: relative flow change = 0.035000
              Trial 11: relative flow change = 0.004860
              Trial 12: relative flow change = 0.001591
              Trial 13: relative flow change = 0.000465
              Trial 14: relative flow change = 0.000051
                        maximum  flow change = 0.5602 for Node J-233
                        maximum  head error  = 0.0000 for Link P-1130

     0:00:00: Balanced after 14 trials
     0:00:00: Reservoir R-1 is emptying
     0:00:00: Tank T-1 is filling at 83.87 ft
     0:00:00: Tank T-2 is filling at 84.43 ft
     0:00:00: Tank T-3 is emptying at 100.75 ft
     0:00:00: Tank T-4 is emptying at 96.31 ft
   
     1:00:00: Balancing the network:

              Trial  1: relative flow change = 0.141615
              Trial  2: relative flow change = 0.008472
              Trial  3: relative flow change = 0.000096
                        maximum  flow change = 0.3474 for Link P-75
                        maximum  head error  = 0.0000 for Link P-663

     1:00:00: Balanced after 3 trials
   
     1:31:23: Pump ~@Pump-1 changed by Tank T-3 control
     1:31:23: Balancing the network:

              Trial  1: relative flow change = 0.139543
              Trial  2: relative flow change = 0.077988
              Trial  3: relative flow change = 0.071865
              Trial  4: relative flow change = 0.027291
              Trial  5: relative flow change = 0.002294
              Trial  6: relative flow change = 0.000016
                        maximum  flow change = 0.1091 for Link P-276
                        maximum  head error  = 0.0000 for Link ~@Pump-1

     1:31:23: Balanced after 6 trials
     1:31:23: Tank T-3 is filling at 90.75 ft
     1:31:23: Pump ~@Pump-1 changed from closed to open
   
     2:00:00: Balancing the network:

              Trial  1: relative flow change = 0.032229
              Trial  2: relative flow change = 0.001081
              Trial  3: relative flow change = 0.000005
                        maximum  flow change = 0.0283 for Link P-430
                        maximum  head error  = 0.0000 for Link P-323

     2:00:00: Balanced after 3 trials
   
     3:00:00: Balancing the network:

              Trial  1: relative flow change = 0.061599
              Trial  2: relative flow change = 0.005050
              Trial  3: relative flow change = 0.000141
              Trial  4: relative flow change = 0.000000
                        maximum  flow change = 0.0031 for Link P-430
                        maximum  head error  = 0.0000 for Link P-430

     3:00:00: Balanced after 4 trials
   
     4:00:00: Balancing the network:

              Trial  1: relative flow change = 0.050449
              Trial  2: relative flow change = 0.002543
              Trial  3: relative flow change = 0.000021
                        maximum  flow change = 0.2294 for Link P-439
                        maximum  head error  = 0.0000 for Link P-430

     4:00:00: Balanced after 3 trials
   
     4:41:00: Balancing the network:

              Trial  1: relative flow change = 0.025257
              Trial  2: relative flow change = 0.000421
              Pipe P-539 switched from open to closed
              Trial  3: relative flow change = 0.306215
              Trial  4: relative flow change = 0.059035
              Trial  5: relative flow change = 0.010381
              Trial  6: relative flow change = 0.000841
              Trial  7: relative flow change = 0.000013
                        maximum  flow change = 0.1236 for Link P-579
                        maximum  head error  = 0.0000 for Link P-166

     4:41:00: Balanced after 7 trials
     4:41:00: Tank T-1 is closed at 103.87 ft
     4:41:00: Tank T-4 is filling at 91.96 ft
     4:41:00: Pipe P-539 changed from open to temporarily closed
   
     5:00:00: Balancing the network:

              Trial  1: relative flow change = 0.039420
              Trial  2: relative flow change = 0.000897
              Trial  3: relative flow change = 0.000002
                        maximum  flow change = 0.0065 for Link P-528
                        maximum  head error  = 0.0000 for Link P-217

     5:00:00: Balanced after 3 trials
   
     5:12:26: Balancing the network:

              Trial  1: relative flow change = 0.020202
              Trial  2: relative flow change = 0.000211
              Pipe P-36 switched from open to closed
              Pipe P-541 switched from open to closed
              Trial  3: relative flow change = 0.980682
              Trial  4: relative flow change = 0.146462
              Trial  5: relative flow change = 0.023843
              Trial  6: relative flow change = 0.001241
              Trial  7: relative flow change = 0.000027
                        maximum  flow change = 0.1246 for Link P-273
                        maximum  head error  = 0.0000 for Link P-273

     5:12:26: Balanced after 7 trials
     5:12:26: Tank T-2 is closed at 104.43 ft
     5:12:26: Pipe P-36 changed from open to temporarily closed
     5:12:26: Pipe P-541 changed from open to temporarily closed
   
     6:00:00: Balancing the network:

              Trial  1: relative flow change = 0.280684
              Trial  2: relative flow change = 0.053508
              Trial  3: relative flow change = 0.005268
              Trial  4: relative flow change = 0.000356
              Trial  5: relative flow change = 0.000010
                        maximum  flow change = 0.0370 for Link P-323
                        maximum  head error  = 0.0000 for Link P-323

     6:00:00: Balanced after 5 trials
   
     6:37:50: Pump ~@Pump-1 changed by Tank T-3 control
     6:37:50: Balancing the network:

              Trial  1: relative flow change = 1.261376
              Trial  2: relative flow change = 0.322619
              Trial  3: relative flow change = 0.098211
              Trial  4: relative flow change = 0.021917
              Trial  5: relative flow change = 0.003692
              Trial  6: relative flow change = 0.000883
              Trial  7: relative flow change = 0.000421
              Trial  8: relative flow change = 0.000210
              Trial  9: relative flow change = 0.000105
              Trial 10: relative flow change = 0.000053
                        maximum  flow change = 1.6921 for Link ~@Pump-1
                        maximum  head error  = 0.0000 for Link P-530

     6:37:50: Balanced after 10 trials
     6:37:50: Tank T-3 is emptying at 105.75 ft
     6:37:50: Pump ~@Pump-1 changed from open to closed
   
     7:00:00: Balancing the network:

              Trial  1: relative flow change = 0.432857
              Trial  2: relative flow change = 0.090739
              Trial  3: relative flow change = 0.010809
              Trial  4: relative flow change = 0.000887
              Trial  5: relative flow change = 0.000132
              Trial  6: relative flow change = 0.000005
                        maximum  flow change = 0.0264 for Link ~@Pump-1
                        maximum  head error  = 0.0000 for Link P-663

     7:00:00: Balanced after 6 trials
   
     8:00:00: Balancing the network:

              Trial  1: relative flow change = 0.390363
              Trial  2: relative flow change = 0.069827
              Trial  3: relative flow change = 0.005950
              Trial  4: relative flow change = 0.000126
              Trial  5: relative flow change = 0.000000
                        maximum  flow change = 0.0008 for Link ~@Pump-1
                        maximum  head error  = 0.0000 for Link P-534

     8:00:00: Balanced after 5 trials
     8:00:00: Tank T-4 is emptying at 95.11 ft
   
     9:00:00: Balancing the network:

              Trial  1: relative flow change = 0.091742
              Trial  2: relative flow change = 0.004276
              Trial  3: relative flow change = 0.000015
                        maximum  flow change = 0.0334 for Link P-1051
                        maximum  head error  = 0.0000 for Link P-75

     9:00:00: Balanced after 3 trials
   
    10:00:00: Balancing the network:

              Trial  1: relative flow change = 0.044836
              Trial  2: relative flow change = 0.001104
              Trial  3: relative flow change = 0.000001
                        maximum  flow change = 0.0039 for Link P-430
                        maximum  head error  = 0.0000 for Link P-430

    10:00:00: Balanced after 3 trials
   
    11:00:00: Balancing the network:

              Trial  1: relative flow change = 0.018427
              Trial  2: relative flow change = 0.000336
              Trial  3: relative flow change = 0.000001
                        maximum  flow change = 0.0065 for Link P-430
                        maximum  head error  = 0.0000 for Link P-430

    11:00:00: Balanced after 3 trials
   
    12:00:00: Balancing the network:

              Trial  1: relative flow change = 0.016594
              Trial  2: relative flow change = 0.000113
              Trial  3: relative flow change = 0.000000
                        maximum  flow change = 0.0023 for Link P-430
                        maximum  head error  = 0.0000 for Link P-430

    12:00:00: Balanced after 3 trials
   
    13:00:00: Balancing the network:

              Trial  1: relative flow change = 0.027013
              Trial  2: relative flow change = 0.000253
              Trial  3: relative flow change = 0.000001
                        maximum  flow change = 0.0085 for Link P-430
                        maximum  head error  = 0.0000 for Link P-430

    13:00:00: Balanced after 3 trials
   
    14:00:00: Balancing the network:

              Trial  1: relative flow change = 0.014861
              Trial  2: relative flow change = 0.000078
                        maximum  flow change = 0.1716 for Link P-1051
                        maximum  head error  = 0.0000 for Link P-430

    14:00:00: Balanced after 2 trials
   
    15:00:00: Balancing the network:

              Trial  1: relative flow change = 0.007085
              Trial  2: relative flow change = 0.000054
                        maximum  flow change = 0.2093 for Link P-430
                        maximum  head error  = 0.0000 for Link P-430

    15:00:00: Balanced after 2 trials
   
    15:30:08: Pump ~@Pump-1 changed by Tank T-3 control
    15:30:08: Balancing the network:

              Trial  1: relative flow change = 0.220797
              Trial  2: relative flow change = 0.148111
              Trial  3: relative flow change = 0.118941
              Trial  4: relative flow change = 0.048118
              Trial  5: relative flow change = 0.004224
              Trial  6: relative flow change = 0.000036
                        maximum  flow change = 0.0814 for Link ~@Pump-1
                        maximum  head error  = 0.0000 for Link ~@Pump-1

    15:30:08: Balanced after 6 trials
    15:30:08: Tank T-3 is filling at 90.75 ft
    15:30:08: Tank T-4 is filling at 87.00 ft
    15:30:08: Pump ~@Pump-1 changed from closed to open
   
    16:00:00: Balancing the network:

              Trial  1: relative flow change = 0.090776
              Trial  2: relative flow change = 0.008693
              Trial  3: relative flow change = 0.000765
              Trial  4: relative flow change = 0.000017
                        maximum  flow change = 0.0729 for Link P-534
                        maximum  head error  = 0.0000 for Link P-534

    16:00:00: Balanced after 4 trials
   
    17:00:00: Balancing the network:

              Trial  1: relative flow change = 0.160247
              Trial  2: relative flow change = 0.037052
              Trial  3: relative flow change = 0.004799
              Trial  4: relative flow change = 0.000223
              Trial  5: relative flow change = 0.000002
                        maximum  flow change = 0.0079 for Link P-658
                        maximum  head error  = 0.0000 for Link P-1108

    17:00:00: Balanced after 5 trials
   
    18:00:00: Balancing the network:

              Trial  1: relative flow change = 0.066419
              Trial  2: relative flow change = 0.001774
              Trial  3: relative flow change = 0.000016
                        maximum  flow change = 0.0542 for Link P-658
                        maximum  head error  = 0.0000 for Link P-438

    18:00:00: Balanced after 3 trials
   
    19:00:00: Balancing the network:

              Trial  1: relative flow change = 0.092774
              Trial  2: relative flow change = 0.003624
              Trial  3: relative flow change = 0.000221
              Trial  4: relative flow change = 0.000003
                        maximum  flow change = 0.0141 for Link P-590
                        maximum  head error  = 0.0000 for Link P-590

    19:00:00: Balanced after 4 trials
   
    20:00:00: Balancing the network:

              Trial  1: relative flow change = 0.048346
              Trial  2: relative flow change = 0.003346
              Trial  3: relative flow change = 0.000133
              Trial  4: relative flow change = 0.000000
                        maximum  flow change = 0.0019 for Link P-618
                        maximum  head error  = 0.0000 for Link P-612

    20:00:00: Balanced after 4 trials
   
    21:00:00: Balancing the network:

              Trial  1: relative flow change = 0.035671
              Trial  2: relative flow change = 0.000745
              Trial  3: relative flow change = 0.000001
                        maximum  flow change = 0.0027 for Link P-226
                        maximum  head error  = 0.0000 for Link P-273

    21:00:00: Balanced after 3 trials
   
    22:00:00: Balancing the network:

              Trial  1: relative flow change = 0.407758
              Trial  2: relative flow change = 0.040307
              Trial  3: relative flow change = 0.003862
              Trial  4: relative flow change = 0.000170
              Trial  5: relative flow change = 0.000001
                        maximum  flow change = 0.0069 for Link P-273
                        maximum  head error  = 0.0000 for Link P-273

    22:00:00: Balanced after 5 trials
   
    23:00:00: Balancing the network:

              Trial  1: relative flow change = 0.350170
              Trial  2: relative flow change = 0.046350
              Trial  3: relative flow change = 0.009927
              Trial  4: relative flow change = 0.001805
              Trial  5: relative flow change = 0.000091
                        maximum  flow change = 0.2620 for Link P-516
                        maximum  head error  = 0.0000 for Link P-1092

    23:00:00: Balanced after 5 trials
   
    23:10:00: Pump ~@Pump-1 changed by Tank T-3 control
    23:10:00: Balancing the network:

              Trial  1: relative flow change = 1.279017
              Trial  2: relative flow change = 0.271277
              Trial  3: relative flow change = 0.097055
              Trial  4: relative flow change = 0.025012
              Trial  5: relative flow change = 0.004900
              Trial  6: relative flow change = 0.000999
              Trial  7: relative flow change = 0.000447
              Trial  8: relative flow change = 0.000224
              Trial  9: relative flow change = 0.000112
              Trial 10: relative flow change = 0.000056
                        maximum  flow change = 1.6837 for Link ~@Pump-1
                        maximum  head error  = 0.0000 for Link P-530

    23:10:00: Balanced after 10 trials
    23:10:00: Tank T-3 is emptying at 105.75 ft
    23:10:00: Pump ~@Pump-1 changed from open to closed
   
    24:00:00: Balancing the network:

              Trial  1: relative flow change = 0.766949
              Trial  2: relative flow change = 0.294387
              Trial  3: relative flow change = 0.125253
              Trial  4: relative flow change = 0.043997
              Trial  5: relative flow change = 0.009234
              Trial  6: relative flow change = 0.000423
              Trial  7: relative flow change = 0.000001
                        maximum  flow change = 0.0132 for Link ~@Pump-1
                        maximum  head error  = 0.0000 for Link P-534

    24:00:00: Balanced after 7 trials
    24:00:00: Tank T-3 is filling at 102.90 ft
    24:00:00: Tank T-4 is emptying at 95.65 ft
   
   
  Hydraulic Status:
  -----------------------------------------------------------------------
     0:00:00: Balancing the network:

              Trial  1: relative flow change = 1.316122
              Trial  2: relative flow change = 0.526039
              Pipe P-541 switched from open to closed
              Trial  3: relative flow change = 0.245423
              Trial  4: relative flow change = 0.176124
              Pipe P-541 switched from closed to open
              Trial  5: relative flow change = 0.060234
              Trial  6: relative flow change = 0.033199
              Trial  7: relative flow change = 0.016942
              Trial  8: relative flow change = 0.006547
              Trial  9: relative flow change = 0.002566
              Trial 10: relative flow change = 0.000575
              Trial 11: relative flow change = 0.000037
                        maximum  flow change = 0.2081 for Link P-966
                        maximum  head error  = 0.0000 for Link P-562

     0:00:00: Balanced after 11 trials
     0:00:00: Reservoir R-1 is emptying
     0:00:00: Tank T-1 is filling at 83.87 ft
     0:00:00: Tank T-2 is filling at 84.43 ft
     0:00:00: Tank T-3 is emptying at 100.75 ft
     0:00:00: Tank T-4 is emptying at 96.31 ft
   
     1:00:00: Balancing the network:

              Trial  1: relative flow change = 0.141179
              Trial  2: relative flow change = 0.008399
              Trial  3: relative flow change = 0.000095
                        maximum  flow change = 0.3466 for Link P-1047
                        maximum  head error  = 0.0000 for Link P-663

     1:00:00: Balanced after 3 trials
   
     1:31:26: Pump ~@Pump-1 changed by Tank T-3 control
     1:31:26: Balancing the network:

              Trial  1: relative flow change = 0.139276
              Trial  2: relative flow change = 0.077853
              Trial  3: relative flow change = 0.071732
              Trial  4: relative flow change = 0.027217
              Trial  5: relative flow change = 0.002291
              Trial  6: relative flow change = 0.000016
                        maximum  flow change = 0.1090 for Link P-276
                        maximum  head error  = 0.0000 for Link ~@Pump-1

     1:31:26: Balanced after 6 trials
     1:31:26: Tank T-3 is filling at 90.75 ft
     1:31:26: Pump ~@Pump-1 changed from closed to open
   
     2:00:00: Balancing the network:

              Trial  1: relative flow change = 0.032093
              Trial  2: relative flow change = 0.001077
              Trial  3: relative flow change = 0.000005
                        maximum  flow change = 0.0282 for Link P-430
                        maximum  head error  = 0.0000 for Link P-323

     2:00:00: Balanced after 3 trials
   
     3:00:00: Balancing the network:

              Trial  1: relative flow change = 0.061390
              Trial  2: relative flow change = 0.005051
              Trial  3: relative flow change = 0.000142
              Trial  4: relative flow change = 0.000000
                        maximum  flow change = 0.0031 for Link P-430
                        maximum  head error  = 0.0000 for Link P-430

     3:00:00: Balanced after 4 trials
   
     4:00:00: Balancing the network:

              Trial  1: relative flow change = 0.050151
              Trial  2: relative flow change = 0.002524
              Trial  3: relative flow change = 0.000021
                        maximum  flow change = 0.2252 for Link P-439
                        maximum  head error  = 0.0000 for Link P-430

     4:00:00: Balanced after 3 trials
   
     4:41:25: Balancing the network:

              Trial  1: relative flow change = 0.025396
              Trial  2: relative flow change = 0.000426
              Pipe P-539 switched from open to closed
              Trial  3: relative flow change = 0.304876
              Trial  4: relative flow change = 0.055799
              Trial  5: relative flow change = 0.008958
              Trial  6: relative flow change = 0.000707
              Trial  7: relative flow change = 0.000010
                        maximum  flow change = 0.1166 for Link P-166
                        maximum  head error  = 0.0000 for Link P-166

     4:41:25: Balanced after 7 trials
     4:41:25: Tank T-1 is closed at 103.87 ft
     4:41:25: Tank T-4 is filling at 91.96 ft
     4:41:25: Pipe P-539 changed from open to temporarily closed
   
     5:00:00: Balancing the network:

              Trial  1: relative flow change = 0.038611
              Trial  2: relative flow change = 0.000885
              Trial  3: relative flow change = 0.000002
                        maximum  flow change = 0.0076 for Link P-528
                        maximum  head error  = 0.0000 for Link P-217

     5:00:00: Balanced after 3 trials
   
     5:14:02: Balancing the network:

              Trial  1: relative flow change = 0.022940
              Trial  2: relative flow change = 0.000281
              Pipe P-36 switched from open to closed
              Pipe P-541 switched from open to closed
              Trial  3: relative flow change = 0.963250
              Trial  4: relative flow change = 0.145437
              Trial  5: relative flow change = 0.023247
              Trial  6: relative flow change = 0.001226
              Trial  7: relative flow change = 0.000028
                        maximum  flow change = 0.1325 for Link P-273
                        maximum  head error  = 0.0000 for Link P-273

     5:14:02: Balanced after 7 trials
     5:14:02: Tank T-2 is closed at 104.43 ft
     5:14:02: Pipe P-36 changed from open to temporarily closed
     5:14:02: Pipe P-541 changed from open to temporarily closed
   
     6:00:00: Balancing the network:

              Trial  1: relative flow change = 0.268346
              Trial  2: relative flow change = 0.048113
              Trial  3: relative flow change = 0.004853
              Trial  4: relative flow change = 0.000247
              Trial  5: relative flow change = 0.000002
                        maximum  flow change = 0.0055 for Link P-323
                        maximum  head error  = 0.0000 for Link P-663

     6:00:00: Balanced after 5 trials
   
     6:40:08: Pump ~@Pump-1 changed by Tank T-3 control
     6:40:08: Balancing the network:

              Trial  1: relative flow change = 1.237983
              Trial  2: relative flow change = 0.323590
              Trial  3: relative flow change = 0.088741
              Trial  4: relative flow change = 0.016227
              Trial  5: relative flow change = 0.002708
              Trial  6: relative flow change = 0.000839
              Trial  7: relative flow change = 0.000414
              Trial  8: relative flow change = 0.000207
              Trial  9: relative flow change = 0.000103
              Trial 10: relative flow change = 0.000052
                        maximum  flow change = 1.6928 for Link ~@Pump-1
                        maximum  head error  = 0.0000 for Link ~@Pump-2

     6:40:08: Balanced after 10 trials
     6:40:08: Tank T-3 is emptying at 105.75 ft
     6:40:08: Pump ~@Pump-1 changed from open to closed
   
     7:00:00: Balancing the network:

              Trial  1: relative flow change = 0.411321
              Trial  2: relative flow change = 0.082990
              Trial  3: relative flow change = 0.014185
              Trial  4: relative flow change = 0.001838
              Trial  5: relative flow change = 0.000115
              Trial  6: relative flow change = 0.000003
                        maximum  flow change = 0.0265 for Link ~@Pump-1
                        maximum  head error  = 0.0000 for Link P-663

     7:00:00: Balanced after 6 trials
   
     8:00:00: Balancing the network:

              Trial  1: relative flow change = 0.407986
              Trial  2: relative flow change = 0.081827
              Trial  3: relative flow change = 0.009643
              Trial  4: relative flow change = 0.000391
              Trial  5: relative flow change = 0.000001
                        maximum  flow change = 0.0036 for Link P-574
                        maximum  head error  = 0.0000 for Link P-574

     8:00:00: Balanced after 5 trials
     8:00:00: Tank T-4 is emptying at 95.11 ft
   
     9:00:00: Balancing the network:

              Trial  1: relative flow change = 0.090347
              Trial  2: relative flow change = 0.004149
              Trial  3: relative flow change = 0.000014
                        maximum  flow change = 0.0318 for Link P-1051
                        maximum  head error  = 0.0000 for Link P-75

     9:00:00: Balanced after 3 trials
   
    10:00:00: Balancing the network:

              Trial  1: relative flow change = 0.044424
              Trial  2: relative flow change = 0.001088
              Trial  3: relative flow change = 0.000001
                        maximum  flow change = 0.0038 for Link P-430
                        maximum  head error  = 0.0000 for Link P-430

    10:00:00: Balanced after 3 trials
   
    11:00:00: Balancing the network:

              Trial  1: relative flow change = 0.018432
              Trial  2: relative flow change = 0.000331
              Trial  3: relative flow change = 0.000001
                        maximum  flow change = 0.0058 for Link P-430
                        maximum  head error  = 0.0000 for Link P-430

    11:00:00: Balanced after 3 trials
   
    12:00:00: Balancing the network:

              Trial  1: relative flow change = 0.016560
              Trial  2: relative flow change = 0.000077
                        maximum  flow change = 0.4264 for Link P-430
                        maximum  head error  = 0.0000 for Link P-430

    12:00:00: Balanced after 2 trials
   
    13:00:00: Balancing the network:

              Trial  1: relative flow change = 0.026750
              Trial  2: relative flow change = 0.000253
              Trial  3: relative flow change = 0.000001
                        maximum  flow change = 0.0088 for Link P-430
                        maximum  head error  = 0.0000 for Link P-430

    13:00:00: Balanced after 3 trials
   
    14:00:00: Balancing the network:

              Trial  1: relative flow change = 0.014658
              Trial  2: relative flow change = 0.000076
                        maximum  flow change = 0.1681 for Link P-1051
                        maximum  head error  = 0.0000 for Link P-430

    14:00:00: Balanced after 2 trials
   
    15:00:00: Balancing the network:

              Trial  1: relative flow change = 0.007044
              Trial  2: relative flow change = 0.000053
                        maximum  flow change = 0.2080 for Link P-430
                        maximum  head error  = 0.0000 for Link P-430

    15:00:00: Balanced after 2 trials
   
    15:20:53: Pump ~@Pump-1 changed by Tank T-3 control
    15:20:53: Balancing the network:

              Trial  1: relative flow change = 0.218807
              Trial  2: relative flow change = 0.146353
              Trial  3: relative flow change = 0.117982
              Trial  4: relative flow change = 0.047710
              Trial  5: relative flow change = 0.004267
              Trial  6: relative flow change = 0.000039
                        maximum  flow change = 0.0813 for Link P-977
                        maximum  head error  = 0.0000 for Link ~@Pump-1

    15:20:53: Balanced after 6 trials
    15:20:53: Tank T-3 is filling at 90.75 ft
    15:20:53: Tank T-4 is filling at 87.08 ft
    15:20:53: Pump ~@Pump-1 changed from closed to open
   
    16:00:00: Balancing the network:

              Trial  1: relative flow change = 0.117594
              Trial  2: relative flow change = 0.014656
              Trial  3: relative flow change = 0.007133
              Trial  4: relative flow change = 0.002136
              Trial  5: relative flow change = 0.000244
              Trial  6: relative flow change = 0.000003
                        maximum  flow change = 0.0118 for Link P-534
                        maximum  head error  = 0.0000 for Link P-534

    16:00:00: Balanced after 6 trials
   
    17:00:00: Balancing the network:

              Trial  1: relative flow change = 0.141483
              Trial  2: relative flow change = 0.046186
              Trial  3: relative flow change = 0.007847
              Trial  4: relative flow change = 0.000700
              Trial  5: relative flow change = 0.000028
                        maximum  flow change = 0.2329 for Link P-661
                        maximum  head error  = 0.0000 for Link P-612

    17:00:00: Balanced after 5 trials
   
    18:00:00: Balancing the network:

              Trial  1: relative flow change = 0.068790
              Trial  2: relative flow change = 0.001637
              Trial  3: relative flow change = 0.000051
                        maximum  flow change = 0.2937 for Link P-584
                        maximum  head error  = 0.0000 for Link P-1108

    18:00:00: Balanced after 3 trials
   
    19:00:00: Balancing the network:

              Trial  1: relative flow change = 0.092231
              Trial  2: relative flow change = 0.003418
              Trial  3: relative flow change = 0.000194
              Trial  4: relative flow change = 0.000001
                        maximum  flow change = 0.0088 for Link P-658
                        maximum  head error  = 0.0000 for Link P-1108

    19:00:00: Balanced after 4 trials
   
    20:00:00: Balancing the network:

              Trial  1: relative flow change = 0.048081
              Trial  2: relative flow change = 0.003939
              Trial  3: relative flow change = 0.000197
              Trial  4: relative flow change = 0.000001
                        maximum  flow change = 0.0043 for Link P-618
                        maximum  head error  = 0.0000 for Link P-534

    20:00:00: Balanced after 4 trials
   
    21:00:00: Balancing the network:

              Trial  1: relative flow change = 0.035518
              Trial  2: relative flow change = 0.000749
              Trial  3: relative flow change = 0.000001
                        maximum  flow change = 0.0029 for Link P-226
                        maximum  head error  = 0.0000 for Link P-273

    21:00:00: Balanced after 3 trials
   
    22:00:00: Balancing the network:

              Trial  1: relative flow change = 0.403854
              Trial  2: relative flow change = 0.040843
              Trial  3: relative flow change = 0.004226
              Trial  4: relative flow change = 0.000265
              Trial  5: relative flow change = 0.000003
                        maximum  flow change = 0.0136 for Link P-612
                        maximum  head error  = 0.0000 for Link P-273

    22:00:00: Balanced after 5 trials
   
    23:00:00: Balancing the network:

              Trial  1: relative flow change = 0.346780
              Trial  2: relative flow change = 0.045174
              Trial  3: relative flow change = 0.008133
              Trial  4: relative flow change = 0.001177
              Trial  5: relative flow change = 0.000039
                        maximum  flow change = 0.1066 for Link P-516
                        maximum  head error  = 0.0000 for Link P-516

    23:00:00: Balanced after 5 trials
   
    23:07:42: Pump ~@Pump-1 changed by Tank T-3 control
    23:07:42: Balancing the network:

              Trial  1: relative flow change = 1.257776
              Trial  2: relative flow change = 0.257059
              Trial  3: relative flow change = 0.091432
              Trial  4: relative flow change = 0.024030
              Trial  5: relative flow change = 0.005232
              Trial  6: relative flow change = 0.001019
              Trial  7: relative flow change = 0.000444
              Trial  8: relative flow change = 0.000222
              Trial  9: relative flow change = 0.000111
              Trial 10: relative flow change = 0.000055
                        maximum  flow change = 1.6830 for Link ~@Pump-1
                        maximum  head error  = 0.0000 for Link P-530

    23:07:42: Balanced after 10 trials
    23:07:42: Tank T-3 is emptying at 105.75 ft
    23:07:42: Pump ~@Pump-1 changed from open to closed
   
    24:00:00: Balancing the network:

              Trial  1: relative flow change = 0.755817
              Trial  2: relative flow change = 0.248107
              Trial  3: relative flow change = 0.098073
              Trial  4: relative flow change = 0.032725
              Trial  5: relative flow change = 0.005250
              Trial  6: relative flow change = 0.000144
              Trial  7: relative flow change = 0.000001
                        maximum  flow change = 0.0131 for Link ~@Pump-1
                        maximum  head error  = 0.0000 for Link P-534

    24:00:00: Balanced after 7 trials
    24:00:00: Tank T-3 is filling at 102.82 ft
    24:00:00: Tank T-4 is emptying at 95.78 ft
   
   
  Hydraulic Status:
  -----------------------------------------------------------------------
     0:00:00: Balancing the network:

              Trial  1: relative flow change = 1.249435
              Trial  2: relative flow change = 0.698704
              Pipe P-36 switched from open to closed
              Pipe P-541 switched from open to closed
              Trial  3: relative flow change = 0.457044
              Trial  4: relative flow change = 0.323295
              Pipe P-36 switched from closed to open
              Pipe P-541 switched from closed to open
              Trial  5: relative flow change = 0.147178
              Trial  6: relative flow change = 0.091473
              Trial  7: relative flow change = 0.038499
              Trial  8: relative flow change = 0.018834
              Trial  9: relative flow change = 0.008367
              Trial 10: relative flow change = 0.003581
              Trial 11: relative flow change = 0.001042
              Trial 12: relative flow change = 0.000107
              Trial 13: relative flow change = 0.000001
                        maximum  flow change = 0.0119 for Link P-969
                        maximum  head error  = 0.0000 for Link P-952

     0:00:00: Balanced after 13 trials
     0:00:00: Reservoir R-1 is emptying
     0:00:00: Tank T-1 is filling at 83.87 ft
     0:00:00: Tank T-2 is filling at 84.43 ft
     0:00:00: Tank T-3 is emptying at 100.75 ft
     0:00:00: Tank T-4 is emptying at 96.31 ft
   
     1:00:00: Balancing the network:

              Trial  1: relative flow change = 0.141867
              Trial  2: relative flow change = 0.008513
              Trial  3: relative flow change = 0.000097
                        maximum  flow change = 0.3562 for Link P-75
                        maximum  head error  = 0.0000 for Link P-663

     1:00:00: Balanced after 3 trials
   
     1:30:52: Pump ~@Pump-1 changed by Tank T-3 control
     1:30:52: Balancing the network:

              Trial  1: relative flow change = 0.139033
              Trial  2: relative flow change = 0.077670
              Trial  3: relative flow change = 0.071435
              Trial  4: relative flow change = 0.027025
              Trial  5: relative flow change = 0.002304
              Trial  6: relative flow change = 0.000017
                        maximum  flow change = 0.1245 for Link P-276
                        maximum  head error  = 0.0000 for Link ~@Pump-1

     1:30:52: Balanced after 6 trials
     1:30:52: Tank T-3 is filling at 90.75 ft
     1:30:52: Pump ~@Pump-1 changed from closed to open
   
     2:00:00: Balancing the network:

              Trial  1: relative flow change = 0.032641
              Trial  2: relative flow change = 0.001098
              Trial  3: relative flow change = 0.000005
                        maximum  flow change = 0.0298 for Link P-430
                        maximum  head error  = 0.0000 for Link P-323

     2:00:00: Balanced after 3 trials
   
     3:00:00: Balancing the network:

              Trial  1: relative flow change = 0.061302
              Trial  2: relative flow change = 0.004943
              Trial  3: relative flow change = 0.000137
              Trial  4: relative flow change = 0.000000
                        maximum  flow change = 0.0029 for Link P-430
                        maximum  head error  = 0.0000 for Link P-430

     3:00:00: Balanced after 4 trials
   
     4:00:00: Balancing the network:

              Trial  1: relative flow change = 0.050363
              Trial  2: relative flow change = 0.002495
              Trial  3: relative flow change = 0.000020
                        maximum  flow change = 0.2108 for Link P-439
                        maximum  head error  = 0.0000 for Link P-430

     4:00:00: Balanced after 3 trials
   
     4:40:49: Balancing the network:

              Trial  1: relative flow change = 0.025198
              Trial  2: relative flow change = 0.000426
              Pipe P-539 switched from open to closed
              Trial  3: relative flow change = 0.306854
              Trial  4: relative flow change = 0.058690
              Trial  5: relative flow change = 0.010303
              Trial  6: relative flow change = 0.000820
              Trial  7: relative flow change = 0.000012
                        maximum  flow change = 0.1118 for Link P-579
                        maximum  head error  = 0.0000 for Link P-166

     4:40:49: Balanced after 7 trials
     4:40:49: Tank T-1 is closed at 103.87 ft
     4:40:49: Tank T-4 is filling at 91.95 ft
     4:40:49: Pipe P-539 changed from open to temporarily closed
   
     5:00:00: Balancing the network:

              Trial  1: relative flow change = 0.039882
              Trial  2: relative flow change = 0.000910
              Trial  3: relative flow change = 0.000002
                        maximum  flow change = 0.0064 for Link P-528
                        maximum  head error  = 0.0000 for Link P-217

     5:00:00: Balanced after 3 trials
   
     5:11:35: Balancing the network:

              Trial  1: relative flow change = 0.018900
              Trial  2: relative flow change = 0.000183
              Pipe P-36 switched from open to closed
              Pipe P-541 switched from open to closed
              Trial  3: relative flow change = 0.987522
              Trial  4: relative flow change = 0.148678
              Trial  5: relative flow change = 0.023420
              Trial  6: relative flow change = 0.001138
              Trial  7: relative flow change = 0.000023
                        maximum  flow change = 0.1288 for Link P-273
                        maximum  head error  = 0.0000 for Link P-273

     5:11:35: Balanced after 7 trials
     5:11:35: Tank T-2 is closed at 104.43 ft
     5:11:35: Pipe P-36 changed from open to temporarily closed
     5:11:35: Pipe P-541 changed from open to temporarily closed
   
     6:00:00: Balancing the network:

              Trial  1: relative flow change = 0.285569
              Trial  2: relative flow change = 0.055014
              Trial  3: relative flow change = 0.005918
              Trial  4: relative flow change = 0.000441
              Trial  5: relative flow change = 0.000011
                        maximum  flow change = 0.0364 for Link P-323
                        maximum  head error  = 0.0000 for Link P-1092

     6:00:00: Balanced after 5 trials
   
     6:37:21: Pump ~@Pump-1 changed by Tank T-3 control
     6:37:21: Balancing the network:

              Trial  1: relative flow change = 1.265400
              Trial  2: relative flow change = 0.320550
              Trial  3: relative flow change = 0.105671
              Trial  4: relative flow change = 0.026223
              Trial  5: relative flow change = 0.004685
              Trial  6: relative flow change = 0.000933
              Trial  7: relative flow change = 0.000422
              Trial  8: relative flow change = 0.000211
              Trial  9: relative flow change = 0.000106
              Trial 10: relative flow change = 0.000053
                        maximum  flow change = 1.6919 for Link ~@Pump-1
                        maximum  head error  = 0.0000 for Link ~@Pump-2

     6:37:21: Balanced after 10 trials
     6:37:21: Tank T-3 is emptying at 105.75 ft
     6:37:21: Pump ~@Pump-1 changed from open to closed
   
     7:00:00: Balancing the network:

              Trial  1: relative flow change = 0.438054
              Trial  2: relative flow change = 0.092845
              Trial  3: relative flow change = 0.010233
              Trial  4: relative flow change = 0.000736
              Trial  5: relative flow change = 0.000099
                        maximum  flow change = 0.2573 for Link P-655
                        maximum  head error  = 0.0003 for Link P-663

     7:00:00: Balanced after 5 trials
   
     8:00:00: Balancing the network:

              Trial  1: relative flow change = 0.388047
              Trial  2: relative flow change = 0.068608
              Trial  3: relative flow change = 0.005443
              Trial  4: relative flow change = 0.000103
              Trial  5: relative flow change = 0.000000
                        maximum  flow change = 0.0017 for Link ~@Pump-1
                        maximum  head error  = 0.0000 for Link P-534

     8:00:00: Balanced after 5 trials
     8:00:00: Tank T-4 is emptying at 95.09 ft
   
     9:00:00: Balancing the network:

              Trial  1: relative flow change = 0.092236
              Trial  2: relative flow change = 0.004313
              Trial  3: relative flow change = 0.000016
                        maximum  flow change = 0.0337 for Link P-1051
                        maximum  head error  = 0.0000 for Link P-75

     9:00:00: Balanced after 3 trials
   
    10:00:00: Balancing the network:

              Trial  1: relative flow change = 0.045038
              Trial  2: relative flow change = 0.001109
              Trial  3: relative flow change = 0.000001
                        maximum  flow change = 0.0039 for Link P-430
                        maximum  head error  = 0.0000 for Link P-430

    10:00:00: Balanced after 3 trials
   
    11:00:00: Balancing the network:

              Trial  1: relative flow change = 0.018477
              Trial  2: relative flow change = 0.000336
              Trial  3: relative flow change = 0.000001
                        maximum  flow change = 0.0063 for Link P-430
                        maximum  head error  = 0.0000 for Link P-430

    11:00:00: Balanced after 3 trials
   
    12:00:00: Balancing the network:

              Trial  1: relative flow change = 0.016621
              Trial  2: relative flow change = 0.000101
              Trial  3: relative flow change = 0.000000
                        maximum  flow change = 0.0018 for Link P-430
                        maximum  head error  = 0.0000 for Link P-430

    12:00:00: Balanced after 3 trials
   
    13:00:00: Balancing the network:

              Trial  1: relative flow change = 0.027080
              Trial  2: relative flow change = 0.000253
              Trial  3: relative flow change = 0.000001
                        maximum  flow change = 0.0086 for Link P-430
                        maximum  head error  = 0.0000 for Link P-430

    13:00:00: Balanced after 3 trials
   
    14:00:00: Balancing the network:

              Trial  1: relative flow change = 0.014895
              Trial  2: relative flow change = 0.000079
                        maximum  flow change = 0.1718 for Link P-1051
                        maximum  head error  = 0.0000 for Link P-430

    14:00:00: Balanced after 2 trials
   
    15:00:00: Balancing the network:

              Trial  1: relative flow change = 0.007100
              Trial  2: relative flow change = 0.000055
                        maximum  flow change = 0.2096 for Link P-430
                        maximum  head error  = 0.0000 for Link P-430

    15:00:00: Balanced after 2 trials
   
    15:29:56: Pump ~@Pump-1 changed by Tank T-3 control
    15:29:56: Balancing the network:

              Trial  1: relative flow change = 0.221298
              Trial  2: relative flow change = 0.148536
              Trial  3: relative flow change = 0.119216
              Trial  4: relative flow change = 0.048258
              Trial  5: relative flow change = 0.004210
              Trial  6: relative flow change = 0.000034
                        maximum  flow change = 0.0813 for Link P-977
                        maximum  head error  = 0.0000 for Link ~@Pump-1

    15:29:56: Balanced after 6 trials
    15:29:56: Tank T-3 is filling at 90.75 ft
    15:29:56: Tank T-4 is filling at 87.00 ft
    15:29:56: Pump ~@Pump-1 changed from closed to open
   
    16:00:00: Balancing the network:

              Trial  1: relative flow change = 0.091563
              Trial  2: relative flow change = 0.008808
              Trial  3: relative flow change = 0.000806
              Trial  4: relative flow change = 0.000020
                        maximum  flow change = 0.0838 for Link P-534
                        maximum  head error  = 0.0000 for Link P-534

    16:00:00: Balanced after 4 trials
   
    17:00:00: Balancing the network:

              Trial  1: relative flow change = 0.160269
              Trial  2: relative flow change = 0.037489
              Trial  3: relative flow change = 0.004773
              Trial  4: relative flow change = 0.000224
              Trial  5: relative flow change = 0.000002
                        maximum  flow change = 0.0098 for Link P-1108
                        maximum  head error  = 0.0000 for Link P-1108

    17:00:00: Balanced after 5 trials
   
    18:00:00: Balancing the network:

              Trial  1: relative flow change = 0.066626
              Trial  2: relative flow change = 0.001802
              Trial  3: relative flow change = 0.000018
                        maximum  flow change = 0.0607 for Link P-1108
                        maximum  head error  = 0.0000 for Link P-438

    18:00:00: Balanced after 3 trials
   
    19:00:00: Balancing the network:

              Trial  1: relative flow change = 0.093008
              Trial  2: relative flow change = 0.003641
              Trial  3: relative flow change = 0.000223
              Trial  4: relative flow change = 0.000003
                        maximum  flow change = 0.0143 for Link P-590
                        maximum  head error  = 0.0000 for Link P-590

    19:00:00: Balanced after 4 trials
   
    20:00:00: Balancing the network:

              Trial  1: relative flow change = 0.048461
              Trial  2: relative flow change = 0.003341
              Trial  3: relative flow change = 0.000132
              Trial  4: relative flow change = 0.000000
                        maximum  flow change = 0.0019 for Link P-618
                        maximum  head error  = 0.0000 for Link P-612

    20:00:00: Balanced after 4 trials
   
    21:00:00: Balancing the network:

              Trial  1: relative flow change = 0.035783
              Trial  2: relative flow change = 0.000748
              Trial  3: relative flow change = 0.000001
                        maximum  flow change = 0.0028 for Link P-226
                        maximum  head error  = 0.0000 for Link P-273

    21:00:00: Balanced after 3 trials
   
    22:00:00: Balancing the network:

              Trial  1: relative flow change = 0.409336
              Trial  2: relative flow change = 0.040554
              Trial  3: relative flow change = 0.003832
              Trial  4: relative flow change = 0.000166
              Trial  5: relative flow change = 0.000001
                        maximum  flow change = 0.0069 for Link P-273
                        maximum  head error  = 0.0000 for Link P-273

    22:00:00: Balanced after 5 trials
   
    23:00:00: Balancing the network:

              Trial  1: relative flow change = 0.351774
              Trial  2: relative flow change = 0.046699
              Trial  3: relative flow change = 0.010012
              Trial  4: relative flow change = 0.001838
              Trial  5: relative flow change = 0.000094
                        maximum  flow change = 0.2688 for Link P-516
                        maximum  head error  = 0.0000 for Link P-1092

    23:00:00: Balanced after 5 trials
   
    23:09:54: Pump ~@Pump-1 changed by Tank T-3 control
    23:09:54: Balancing the network:

              Trial  1: relative flow change = 1.287976
              Trial  2: relative flow change = 0.272262
              Trial  3: relative flow change = 0.097131
              Trial  4: relative flow change = 0.024886
              Trial  5: relative flow change = 0.004878
              Trial  6: relative flow change = 0.001001
              Trial  7: relative flow change = 0.000450
              Trial  8: relative flow change = 0.000225
              Trial  9: relative flow change = 0.000113
              Trial 10: relative flow change = 0.000056
                        maximum  flow change = 1.6837 for Link ~@Pump-1
                        maximum  head error  = 0.0000 for Link P-530

    23:09:54: Balanced after 10 trials
    23:09:54: Tank T-3 is emptying at 105.75 ft
    23:09:54: Pump ~@Pump-1 changed from open to closed
   
    24:00:00: Balancing the network:

              Trial  1: relative flow change = 0.772406
              Trial  2: relative flow change = 0.297150
              Trial  3: relative flow change = 0.127239
              Trial  4: relative flow change = 0.045176
              Trial  5: relative flow change = 0.009650
              Trial  6: relative flow change = 0.000458
              Trial  7: relative flow change = 0.000002
                        maximum  flow change = 0.0132 for Link ~@Pump-1
                        maximum  head error  = 0.0000 for Link P-534

    24:00:00: Balanced after 7 trials
    24:00:00: Tank T-3 is filling at 102.90 ft
    24:00:00: Tank T-4 is emptying at 95.66 ft
   
   
  Hydraulic Status:
  -----------------------------------------------------------------------
     0:00:00: Balancing the network:

              Trial  1: relative flow change = 1.331433
              Trial  2: relative flow change = 0.511395
              Pipe P-541 switched from open to closed
              Trial  3: relative flow change = 0.228457
              Trial  4: relative flow change = 0.164028
              Pipe P-541 switched from closed to open
              Trial  5: relative flow change = 0.054598
              Trial  6: relative flow change = 0.030075
              Trial  7: relative flow change = 0.015208
              Trial  8: relative flow change = 0.005939
              Trial  9: relative flow change = 0.002289
              Trial 10: relative flow change = 0.000555
              Trial 11: relative flow change = 0.000040
                        maximum  flow change = 0.2449 for Link P-13
                        maximum  head error  = 0.0000 for Link P-562

     0:00:00: Balanced after 11 trials
     0:00:00: Reservoir R-1 is emptying
     0:00:00: Tank T-1 is filling at 83.87 ft
     0:00:00: Tank T-2 is filling at 84.43 ft
     0:00:00: Tank T-3 is emptying at 100.75 ft
     0:00:00: Tank T-4 is emptying at 96.31 ft
   
     1:00:00: Balancing the network:

              Trial  1: relative flow change = 0.141280
              Trial  2: relative flow change = 0.008414
              Trial  3: relative flow change = 0.000095
                        maximum  flow change = 0.3462 for Link P-1050
                        maximum  head error  = 0.0000 for Link P-663

     1:00:00: Balanced after 3 trials
   
     1:31:28: Pump ~@Pump-1 changed by Tank T-3 control
     1:31:28: Balancing the network:

              Trial  1: relative flow change = 0.139393
              Trial  2: relative flow change = 0.077921
              Trial  3: relative flow change = 0.071809
              Trial  4: relative flow change = 0.027276
              Trial  5: relative flow change = 0.002292
              Trial  6: relative flow change = 0.000016
                        maximum  flow change = 0.1079 for Link P-276
                        maximum  head error  = 0.0000 for Link ~@Pump-1

     1:31:28: Balanced after 6 trials
     1:31:28: Tank T-3 is filling at 90.75 ft
     1:31:28: Pump ~@Pump-1 changed from closed to open
   
     2:00:00: Balancing the network:

              Trial  1: relative flow change = 0.032090
              Trial  2: relative flow change = 0.001076
              Trial  3: relative flow change = 0.000005
                        maximum  flow change = 0.0281 for Link P-430
                        maximum  head error  = 0.0000 for Link P-323

     2:00:00: Balanced after 3 trials
   
     3:00:00: Balancing the network:

              Trial  1: relative flow change = 0.061483
              Trial  2: relative flow change = 0.005059
              Trial  3: relative flow change = 0.000142
              Trial  4: relative flow change = 0.000000
                        maximum  flow change = 0.0031 for Link P-430
                        maximum  head error  = 0.0000 for Link P-430

     3:00:00: Balanced after 4 trials
   
     4:00:00: Balancing the network:

              Trial  1: relative flow change = 0.050250
              Trial  2: relative flow change = 0.002534
              Trial  3: relative flow change = 0.000021
                        maximum  flow change = 0.2284 for Link P-439
                        maximum  head error  = 0.0000 for Link P-430

     4:00:00: Balanced after 3 trials
   
     4:41:18: Balancing the network:

              Trial  1: relative flow change = 0.025368
              Trial  2: relative flow change = 0.000424
              Pipe P-539 switched from open to closed
              Trial  3: relative flow change = 0.305348
              Trial  4: relative flow change = 0.056255
              Trial  5: relative flow change = 0.009205
              Trial  6: relative flow change = 0.000730
              Trial  7: relative flow change = 0.000011
                        maximum  flow change = 0.1282 for Link P-166
                        maximum  head error  = 0.0000 for Link P-166

     4:41:18: Balanced after 7 trials
     4:41:18: Tank T-1 is closed at 103.87 ft
     4:41:18: Tank T-4 is filling at 91.96 ft
     4:41:18: Pipe P-539 changed from open to temporarily closed
   
     5:00:00: Balancing the network:

              Trial  1: relative flow change = 0.038858
              Trial  2: relative flow change = 0.000891
              Trial  3: relative flow change = 0.000002
                        maximum  flow change = 0.0075 for Link P-528
                        maximum  head error  = 0.0000 for Link P-217

     5:00:00: Balanced after 3 trials
   
     5:13:35: Balancing the network:

              Trial  1: relative flow change = 0.022211
              Trial  2: relative flow change = 0.000266
              Pipe P-36 switched from open to closed
              Pipe P-541 switched from open to closed
              Trial  3: relative flow change = 0.966968
              Trial  4: relative flow change = 0.145877
              Trial  5: relative flow change = 0.023484
              Trial  6: relative flow change = 0.001244
              Trial  7: relative flow change = 0.000028
                        maximum  flow change = 0.1267 for Link P-273
                        maximum  head error  = 0.0000 for Link P-273

     5:13:35: Balanced after 7 trials
     5:13:35: Tank T-2 is closed at 104.43 ft
     5:13:35: Pipe P-36 changed from open to temporarily closed
     5:13:35: Pipe P-541 changed from open to temporarily closed
   
     6:00:00: Balancing the network:

              Trial  1: relative flow change = 0.271576
              Trial  2: relative flow change = 0.049699
              Trial  3: relative flow change = 0.004784
              Trial  4: relative flow change = 0.000274
              Trial  5: relative flow change = 0.000003
                        maximum  flow change = 0.0083 for Link P-242
                        maximum  head error  = 0.0000 for Link P-663

     6:00:00: Balanced after 5 trials
   
     6:39:26: Pump ~@Pump-1 changed by Tank T-3 control
     6:39:26: Balancing the network:

              Trial  1: relative flow change = 1.243310
              Trial  2: relative flow change = 0.322386
              Trial  3: relative flow change = 0.089561
              Trial  4: relative flow change = 0.017610
              Trial  5: relative flow change = 0.002930
              Trial  6: relative flow change = 0.000847
              Trial  7: relative flow change = 0.000415
              Trial  8: relative flow change = 0.000208
              Trial  9: relative flow change = 0.000104
              Trial 10: relative flow change = 0.000052
                        maximum  flow change = 1.6926 for Link ~@Pump-1
                        maximum  head error  = 0.0000 for Link P-530

     6:39:26: Balanced after 10 trials
     6:39:26: Tank T-3 is emptying at 105.75 ft
     6:39:26: Pump ~@Pump-1 changed from open to closed
   
     7:00:00: Balancing the network:

              Trial  1: relative flow change = 0.417610
              Trial  2: relative flow change = 0.085455
              Trial  3: relative flow change = 0.013264
              Trial  4: relative flow change = 0.001629
              Trial  5: relative flow change = 0.000138
              Trial  6: relative flow change = 0.000004
                        maximum  flow change = 0.0264 for Link ~@Pump-1
                        maximum  head error  = 0.0000 for Link P-663

     7:00:00: Balanced after 6 trials
   
     8:00:00: Balancing the network:

              Trial  1: relative flow change = 0.402397
              Trial  2: relative flow change = 0.077205
              Trial  3: relative flow change = 0.008102
              Trial  4: relative flow change = 0.000264
              Trial  5: relative flow change = 0.000001
                        maximum  flow change = 0.0014 for Link P-574
                        maximum  head error  = 0.0000 for Link P-574

     8:00:00: Balanced after 5 trials
     8:00:00: Tank T-4 is emptying at 95.11 ft
   
     9:00:00: Balancing the network:

              Trial  1: relative flow change = 0.090742
              Trial  2: relative flow change = 0.004186
              Trial  3: relative flow change = 0.000015
                        maximum  flow change = 0.0322 for Link P-1051
                        maximum  head error  = 0.0000 for Link P-75

     9:00:00: Balanced after 3 trials
   
    10:00:00: Balancing the network:

              Trial  1: relative flow change = 0.044529
              Trial  2: relative flow change = 0.001092
              Trial  3: relative flow change = 0.000001
                        maximum  flow change = 0.0038 for Link P-430
                        maximum  head error  = 0.0000 for Link P-430

    10:00:00: Balanced after 3 trials
   
    11:00:00: Balancing the network:

              Trial  1: relative flow change = 0.018443
              Trial  2: relative flow change = 0.000333
              Trial  3: relative flow change = 0.000001
                        maximum  flow change = 0.0060 for Link P-430
                        maximum  head error  = 0.0000 for Link P-430

    11:00:00: Balanced after 3 trials
   
    12:00:00: Balancing the network:

              Trial  1: relative flow change = 0.016567
              Trial  2: relative flow change = 0.000089
                        maximum  flow change = 0.5191 for Link P-430
                        maximum  head error  = 0.0000 for Link P-430

    12:00:00: Balanced after 2 trials
   
    13:00:00: Balancing the network:

              Trial  1: relative flow change = 0.026827
              Trial  2: relative flow change = 0.000253
              Trial  3: relative flow change = 0.000001
                        maximum  flow change = 0.0087 for Link P-430
                        maximum  head error  = 0.0000 for Link P-430

    13:00:00: Balanced after 3 trials
   
    14:00:00: Balancing the network:

              Trial  1: relative flow change = 0.014721
              Trial  2: relative flow change = 0.000077
                        maximum  flow change = 0.1692 for Link P-1051
                        maximum  head error  = 0.0000 for Link P-430

    14:00:00: Balanced after 2 trials
   
    15:00:00: Balancing the network:

              Trial  1: relative flow change = 0.007070
              Trial  2: relative flow change = 0.000053
                        maximum  flow change = 0.2084 for Link P-430
                        maximum  head error  = 0.0000 for Link P-430

    15:00:00: Balanced after 2 trials
   
    15:24:00: Pump ~@Pump-1 changed by Tank T-3 control
    15:24:00: Balancing the network:

              Trial  1: relative flow change = 0.219391
              Trial  2: relative flow change = 0.146874
              Trial  3: relative flow change = 0.118260
              Trial  4: relative flow change = 0.047827
              Trial  5: relative flow change = 0.004255
              Trial  6: relative flow change = 0.000038
                        maximum  flow change = 0.0813 for Link ~@Pump-1
                        maximum  head error  = 0.0000 for Link ~@Pump-1

    15:24:00: Balanced after 6 trials
    15:24:00: Tank T-3 is filling at 90.75 ft
    15:24:00: Tank T-4 is filling at 87.05 ft
    15:24:00: Pump ~@Pump-1 changed from closed to open
   
    16:00:00: Balancing the network:

              Trial  1: relative flow change = 0.108475
              Trial  2: relative flow change = 0.012400
              Trial  3: relative flow change = 0.002955
              Trial  4: relative flow change = 0.000761
              Trial  5: relative flow change = 0.000057
                        maximum  flow change = 0.2432 for Link P-534
                        maximum  head error  = 0.0000 for Link P-534

    16:00:00: Balanced after 5 trials
   
    17:00:00: Balancing the network:

              Trial  1: relative flow change = 0.150382
              Trial  2: relative flow change = 0.048971
              Trial  3: relative flow change = 0.007901
              Trial  4: relative flow change = 0.000773
              Trial  5: relative flow change = 0.000018
                        maximum  flow change = 0.1355 for Link P-590
                        maximum  head error  = 0.0000 for Link P-590

    17:00:00: Balanced after 5 trials
   
    18:00:00: Balancing the network:

              Trial  1: relative flow change = 0.067918
              Trial  2: relative flow change = 0.001659
              Trial  3: relative flow change = 0.000043
                        maximum  flow change = 0.2460 for Link P-658
                        maximum  head error  = 0.0000 for Link P-1108

    18:00:00: Balanced after 3 trials
   
    19:00:00: Balancing the network:

              Trial  1: relative flow change = 0.092362
              Trial  2: relative flow change = 0.003483
              Trial  3: relative flow change = 0.000201
              Trial  4: relative flow change = 0.000002
                        maximum  flow change = 0.0107 for Link P-590
                        maximum  head error  = 0.0000 for Link P-590

    19:00:00: Balanced after 4 trials
   
    20:00:00: Balancing the network:

              Trial  1: relative flow change = 0.048227
              Trial  2: relative flow change = 0.003841
              Trial  3: relative flow change = 0.000185
              Trial  4: relative flow change = 0.000001
                        maximum  flow change = 0.0037 for Link P-618
                        maximum  head error  = 0.0000 for Link P-534

    20:00:00: Balanced after 4 trials
   
    21:00:00: Balancing the network:

              Trial  1: relative flow change = 0.035546
              Trial  2: relative flow change = 0.000747
              Trial  3: relative flow change = 0.000001
                        maximum  flow change = 0.0028 for Link P-226
                        maximum  head error  = 0.0000 for Link P-273

    21:00:00: Balanced after 3 trials
   
    22:00:00: Balancing the network:

              Trial  1: relative flow change = 0.404845
              Trial  2: relative flow change = 0.040606
              Trial  3: relative flow change = 0.004073
              Trial  4: relative flow change = 0.000230
              Trial  5: relative flow change = 0.000002
                        maximum  flow change = 0.0081 for Link P-612
                        maximum  head error  = 0.0000 for Link P-273

    22:00:00: Balanced after 5 trials
   
    23:00:00: Balancing the network:

              Trial  1: relative flow change = 0.347396
              Trial  2: relative flow change = 0.045414
              Trial  3: relative flow change = 0.008679
              Trial  4: relative flow change = 0.001362
              Trial  5: relative flow change = 0.000055
                        maximum  flow change = 0.1457 for Link P-516
                        maximum  head error  = 0.0000 for Link P-1092

    23:00:00: Balanced after 5 trials
   
    23:08:28: Pump ~@Pump-1 changed by Tank T-3 control
    23:08:28: Balancing the network:

              Trial  1: relative flow change = 1.261374
              Trial  2: relative flow change = 0.260958
              Trial  3: relative flow change = 0.093310
              Trial  4: relative flow change = 0.024574
              Trial  5: relative flow change = 0.005271
              Trial  6: relative flow change = 0.001021
              Trial  7: relative flow change = 0.000444
              Trial  8: relative flow change = 0.000222
              Trial  9: relative flow change = 0.000111
              Trial 10: relative flow change = 0.000055
                        maximum  flow change = 1.6833 for Link ~@Pump-1
                        maximum  head error  = 0.0000 for Link P-530

    23:08:28: Balanced after 10 trials
    23:08:28: Tank T-3 is emptying at 105.75 ft
    23:08:28: Pump ~@Pump-1 changed from open to closed
   
    24:00:00: Balancing the network:

              Trial  1: relative flow change = 0.756083
              Trial  2: relative flow change = 0.276282
              Trial  3: relative flow change = 0.117461
              Trial  4: relative flow change = 0.044824
              Trial  5: relative flow change = 0.009709
              Trial  6: relative flow change = 0.000466
              Trial  7: relative flow change = 0.000002
                        maximum  flow change = 0.0132 for Link ~@Pump-1
                        maximum  head error  = 0.0000 for Link P-534

    24:00:00: Balanced after 7 trials
    24:00:00: Tank T-3 is filling at 102.84 ft
    24:00:00: Tank T-4 is emptying at 95.74 ft
   
   
  Hydraulic Status:
  -----------------------------------------------------------------------
     0:00:00: Balancing the network:

              Trial  1: relative flow change = 1.110498
              Trial  2: relative flow change = 0.862311
              Pipe P-36 switched from open to closed
              Pipe P-541 switched from open to closed
              Trial  3: relative flow change = 0.734806
              Trial  4: relative flow change = 0.731929
              Pipe P-36 switched from closed to open
              Pipe P-541 switched from closed to open
              Trial  5: relative flow change = 0.411341
              Trial  6: relative flow change = 0.222115
              Pipe P-541 switched from open to closed
              Trial  7: relative flow change = 0.148764
              Trial  8: relative flow change = 0.077091
              Pipe P-541 switched from closed to open
              Trial  9: relative flow change = 0.099794
              Trial 10: relative flow change = 0.024091
              Trial 11: relative flow change = 0.004470
              Trial 12: relative flow change = 0.001548
              Trial 13: relative flow change = 0.000264
              Trial 14: relative flow change = 0.000008
                        maximum  flow change = 0.0563 for Node J-232
                        maximum  head error  = 0.0000 for Link P-1026

     0:00:00: Balanced after 14 trials
     0:00:00: Reservoir R-1 is emptying
     0:00:00: Tank T-1 is filling at 83.87 ft
     0:00:00: Tank T-2 is filling at 84.43 ft
     0:00:00: Tank T-3 is emptying at 100.75 ft
     0:00:00: Tank T-4 is emptying at 96.31 ft
   
     1:00:00: Balancing the network:

              Trial  1: relative flow change = 0.141687
              Trial  2: relative flow change = 0.008480
              Trial  3: relative flow change = 0.000097
                        maximum  flow change = 0.3556 for Link P-75
                        maximum  head error  = 0.0000 for Link P-663

     1:00:00: Balanced after 3 trials
   
     1:30:54: Pump ~@Pump-1 changed by Tank T-3 control
     1:30:54: Balancing the network:

              Trial  1: relative flow change = 0.138943
              Trial  2: relative flow change = 0.077646
              Trial  3: relative flow change = 0.071417
              Trial  4: relative flow change = 0.027018
              Trial  5: relative flow change = 0.002303
              Trial  6: relative flow change = 0.000017
                        maximum  flow change = 0.1238 for Link P-276
                        maximum  head error  = 0.0000 for Link ~@Pump-1

     1:30:54: Balanced after 6 trials
     1:30:54: Tank T-3 is filling at 90.75 ft
     1:30:54: Pump ~@Pump-1 changed from closed to open
   
     2:00:00: Balancing the network:

              Trial  1: relative flow change = 0.032578
              Trial  2: relative flow change = 0.001095
              Trial  3: relative flow change = 0.000005
                        maximum  flow change = 0.0298 for Link P-430
                        maximum  head error  = 0.0000 for Link P-323

     2:00:00: Balanced after 3 trials
   
     3:00:00: Balancing the network:

              Trial  1: relative flow change = 0.061181
              Trial  2: relative flow change = 0.004946
              Trial  3: relative flow change = 0.000138
              Trial  4: relative flow change = 0.000000
                        maximum  flow change = 0.0030 for Link P-430
                        maximum  head error  = 0.0000 for Link P-430

     3:00:00: Balanced after 4 trials
   
     4:00:00: Balancing the network:

              Trial  1: relative flow change = 0.050204
              Trial  2: relative flow change = 0.002484
              Trial  3: relative flow change = 0.000020
                        maximum  flow change = 0.2078 for Link P-439
                        maximum  head error  = 0.0000 for Link P-430

     4:00:00: Balanced after 3 trials
   
     4:41:01: Balancing the network:

              Trial  1: relative flow change = 0.025218
              Trial  2: relative flow change = 0.000428
              Pipe P-539 switched from open to closed
              Trial  3: relative flow change = 0.305850
              Trial  4: relative flow change = 0.058575
              Trial  5: relative flow change = 0.010323
              Trial  6: relative flow change = 0.000827
              Trial  7: relative flow change = 0.000012
                        maximum  flow change = 0.1170 for Link P-579
                        maximum  head error  = 0.0000 for Link P-166

     4:41:01: Balanced after 7 trials
     4:41:01: Tank T-1 is closed at 103.87 ft
     4:41:01: Tank T-4 is filling at 91.95 ft
     4:41:01: Pipe P-539 changed from open to temporarily closed
   
     5:00:00: Balancing the network:

              Trial  1: relative flow change = 0.039391
              Trial  2: relative flow change = 0.000894
              Trial  3: relative flow change = 0.000002
                        maximum  flow change = 0.0064 for Link P-528
                        maximum  head error  = 0.0000 for Link P-217

     5:00:00: Balanced after 3 trials
   
     5:12:26: Balancing the network:

              Trial  1: relative flow change = 0.020155
              Trial  2: relative flow change = 0.000209
              Pipe P-36 switched from open to closed
              Pipe P-541 switched from open to closed
              Trial  3: relative flow change = 0.980416
              Trial  4: relative flow change = 0.146928
              Trial  5: relative flow change = 0.023085
              Trial  6: relative flow change = 0.001181
              Trial  7: relative flow change = 0.000025
                        maximum  flow change = 0.1401 for Link P-273
                        maximum  head error  = 0.0000 for Link P-273

     5:12:26: Balanced after 7 trials
     5:12:26: Tank T-2 is closed at 104.43 ft
     5:12:26: Pipe P-36 changed from open to temporarily closed
     5:12:26: Pipe P-541 changed from open to temporarily closed
   
     6:00:00: Balancing the network:

              Trial  1: relative flow change = 0.280342
              Trial  2: relative flow change = 0.051835
              Trial  3: relative flow change = 0.005242
              Trial  4: relative flow change = 0.000341
              Trial  5: relative flow change = 0.000008
                        maximum  flow change = 0.0326 for Link P-242
                        maximum  head error  = 0.0000 for Link P-323

     6:00:00: Balanced after 5 trials
   
     6:38:39: Pump ~@Pump-1 changed by Tank T-3 control
     6:38:39: Balancing the network:

              Trial  1: relative flow change = 1.262670
              Trial  2: relative flow change = 0.324398
              Trial  3: relative flow change = 0.096841
              Trial  4: relative flow change = 0.021308
              Trial  5: relative flow change = 0.003646
              Trial  6: relative flow change = 0.000881
              Trial  7: relative flow change = 0.000421
              Trial  8: relative flow change = 0.000211
              Trial  9: relative flow change = 0.000105
              Trial 10: relative flow change = 0.000053
                        maximum  flow change = 1.6923 for Link ~@Pump-1
                        maximum  head error  = 0.0000 for Link P-530

     6:38:39: Balanced after 10 trials
     6:38:39: Tank T-3 is emptying at 105.75 ft
     6:38:39: Pump ~@Pump-1 changed from open to closed
   
     7:00:00: Balancing the network:

              Trial  1: relative flow change = 0.427380
              Trial  2: relative flow change = 0.088644
              Trial  3: relative flow change = 0.012073
              Trial  4: relative flow change = 0.001248
              Trial  5: relative flow change = 0.000128
              Trial  6: relative flow change = 0.000004
                        maximum  flow change = 0.0264 for Link ~@Pump-1
                        maximum  head error  = 0.0000 for Link P-663

     7:00:00: Balanced after 6 trials
   
     8:00:00: Balancing the network:

              Trial  1: relative flow change = 0.398574
              Trial  2: relative flow change = 0.073725
              Trial  3: relative flow change = 0.007056
              Trial  4: relative flow change = 0.000188
              Trial  5: relative flow change = 0.000000
                        maximum  flow change = 0.0008 for Link ~@Pump-1
                        maximum  head error  = 0.0000 for Link P-574

     8:00:00: Balanced after 5 trials
     8:00:00: Tank T-4 is emptying at 95.10 ft
   
     9:00:00: Balancing the network:

              Trial  1: relative flow change = 0.091653
              Trial  2: relative flow change = 0.004248
              Trial  3: relative flow change = 0.000015
                        maximum  flow change = 0.0329 for Link P-1051
                        maximum  head error  = 0.0000 for Link P-75

     9:00:00: Balanced after 3 trials
   
    10:00:00: Balancing the network:

              Trial  1: relative flow change = 0.044894
              Trial  2: relative flow change = 0.001102
              Trial  3: relative flow change = 0.000001
                        maximum  flow change = 0.0038 for Link P-430
                        maximum  head error  = 0.0000 for Link P-430

    10:00:00: Balanced after 3 trials
   
    11:00:00: Balancing the network:

              Trial  1: relative flow change = 0.018472
              Trial  2: relative flow change = 0.000334
              Trial  3: relative flow change = 0.000001
                        maximum  flow change = 0.0058 for Link P-430
                        maximum  head error  = 0.0000 for Link P-430

    11:00:00: Balanced after 3 trials
   
    12:00:00: Balancing the network:

              Trial  1: relative flow change = 0.016626
              Trial  2: relative flow change = 0.000077
                        maximum  flow change = 0.4215 for Link P-430
                        maximum  head error  = 0.0000 for Link P-430

    12:00:00: Balanced after 2 trials
   
    13:00:00: Balancing the network:

              Trial  1: relative flow change = 0.026970
              Trial  2: relative flow change = 0.000254
              Trial  3: relative flow change = 0.000001
                        maximum  flow change = 0.0088 for Link P-430
                        maximum  head error  = 0.0000 for Link P-430

    13:00:00: Balanced after 3 trials
   
    14:00:00: Balancing the network:

              Trial  1: relative flow change = 0.014799
              Trial  2: relative flow change = 0.000077
                        maximum  flow change = 0.1698 for Link P-1051
                        maximum  head error  = 0.0000 for Link P-430

    14:00:00: Balanced after 2 trials
   
    15:00:00: Balancing the network:

              Trial  1: relative flow change = 0.007054
              Trial  2: relative flow change = 0.000054
                        maximum  flow change = 0.2089 for Link P-430
                        maximum  head error  = 0.0000 for Link P-430

    15:00:00: Balanced after 2 trials
   
    15:24:34: Pump ~@Pump-1 changed by Tank T-3 control
    15:24:34: Balancing the network:

              Trial  1: relative flow change = 0.220491
              Trial  2: relative flow change = 0.147786
              Trial  3: relative flow change = 0.118814
              Trial  4: relative flow change = 0.048073
              Trial  5: relative flow change = 0.004230
[...]
                        maximum  head error  = 0.0000 for Link P-1108

    19:00:00: Balanced after 4 trials
   
    20:00:00: Balancing the network:

              Trial  1: relative flow change = 0.046446
              Trial  2: relative flow change = 0.004110
              Trial  3: relative flow change = 0.000234
              Trial  4: relative flow change = 0.000001
                        maximum  flow change = 0.0067 for Link P-618
                        maximum  head error  = 0.0000 for Link P-534

    20:00:00: Balanced after 4 trials
   
    21:00:00: Balancing the network:

              Trial  1: relative flow change = 0.034497
              Trial  2: relative flow change = 0.000750
              Trial  3: relative flow change = 0.000001
                        maximum  flow change = 0.0030 for Link P-226
                        maximum  head error  = 0.0000 for Link P-273

    21:00:00: Balanced after 3 trials
   
    22:00:00: Balancing the network:

              Trial  1: relative flow change = 0.387759
              Trial  2: relative flow change = 0.040029
              Trial  3: relative flow change = 0.003897
              Trial  4: relative flow change = 0.000275
              Trial  5: relative flow change = 0.000004
                        maximum  flow change = 0.0309 for Link P-612
                        maximum  head error  = 0.0000 for Link P-273

    22:00:00: Balanced after 5 trials
   
    23:00:00: Balancing the network:

              Trial  1: relative flow change = 0.335915
              Trial  2: relative flow change = 0.044092
              Trial  3: relative flow change = 0.006220
              Trial  4: relative flow change = 0.000599
              Trial  5: relative flow change = 0.000008
                        maximum  flow change = 0.0187 for Link P-516
                        maximum  head error  = 0.0000 for Link P-663

    23:00:00: Balanced after 5 trials
   
    23:04:14: Pump ~@Pump-1 changed by Tank T-3 control
    23:04:14: Balancing the network:

              Trial  1: relative flow change = 1.198899
              Trial  2: relative flow change = 0.228778
              Trial  3: relative flow change = 0.074217
              Trial  4: relative flow change = 0.018620
              Trial  5: relative flow change = 0.004185
              Trial  6: relative flow change = 0.000933
              Trial  7: relative flow change = 0.000429
              Trial  8: relative flow change = 0.000215
              Trial  9: relative flow change = 0.000107
              Trial 10: relative flow change = 0.000054
                        maximum  flow change = 1.6821 for Link ~@Pump-1
                        maximum  head error  = 0.0000 for Link P-530

    23:04:14: Balanced after 10 trials
    23:04:14: Tank T-3 is emptying at 105.75 ft
    23:04:14: Pump ~@Pump-1 changed from open to closed
   
    24:00:00: Balancing the network:

              Trial  1: relative flow change = 0.721986
              Trial  2: relative flow change = 0.144676
              Trial  3: relative flow change = 0.048637
              Trial  4: relative flow change = 0.008898
              Trial  5: relative flow change = 0.000437
              Trial  6: relative flow change = 0.000002
                        maximum  flow change = 0.0263 for Link ~@Pump-1
                        maximum  head error  = 0.0000 for Link P-534

    24:00:00: Balanced after 6 trials
    24:00:00: Tank T-3 is filling at 102.70 ft
    24:00:00: Tank T-4 is emptying at 95.96 ft
   
   
  Hydraulic Status:
  -----------------------------------------------------------------------
     0:00:00: Balancing the network:

              Trial  1: relative flow change = 1.489030
              Trial  2: relative flow change = 0.385936
              Trial  3: relative flow change = 0.099763
              Trial  4: relative flow change = 0.019983
              Trial  5: relative flow change = 0.005807
              Trial  6: relative flow change = 0.001664
              Trial  7: relative flow change = 0.000452
              Trial  8: relative flow change = 0.000162
              Trial  9: relative flow change = 0.000051
                        maximum  flow change = 0.2558 for Link P-1133
                        maximum  head error  = 0.0000 for Link P-571

     0:00:00: Balanced after 9 trials
     0:00:00: Reservoir R-1 is emptying
     0:00:00: Tank T-1 is filling at 83.87 ft
     0:00:00: Tank T-2 is filling at 84.43 ft
     0:00:00: Tank T-3 is emptying at 100.75 ft
     0:00:00: Tank T-4 is emptying at 96.31 ft
   
     1:00:00: Balancing the network:

              Trial  1: relative flow change = 0.140764
              Trial  2: relative flow change = 0.008480
              Trial  3: relative flow change = 0.000099
                        maximum  flow change = 0.3428 for Link P-75
                        maximum  head error  = 0.0000 for Link P-663

     1:00:00: Balanced after 3 trials
   
     1:31:40: Pump ~@Pump-1 changed by Tank T-3 control
     1:31:40: Balancing the network:

              Trial  1: relative flow change = 0.139163
              Trial  2: relative flow change = 0.077978
              Trial  3: relative flow change = 0.071837
              Trial  4: relative flow change = 0.027729
              Trial  5: relative flow change = 0.002332
              Trial  6: relative flow change = 0.000017
                        maximum  flow change = 0.1003 for Link P-276
                        maximum  head error  = 0.0000 for Link P-273

     1:31:40: Balanced after 6 trials
     1:31:40: Tank T-3 is filling at 90.75 ft
     1:31:40: Pump ~@Pump-1 changed from closed to open
   
     2:00:00: Balancing the network:

              Trial  1: relative flow change = 0.031672
              Trial  2: relative flow change = 0.001067
              Trial  3: relative flow change = 0.000005
                        maximum  flow change = 0.0287 for Link P-242
                        maximum  head error  = 0.0000 for Link P-323

     2:00:00: Balanced after 3 trials
   
     3:00:00: Balancing the network:

              Trial  1: relative flow change = 0.061495
              Trial  2: relative flow change = 0.005078
              Trial  3: relative flow change = 0.000142
              Trial  4: relative flow change = 0.000000
                        maximum  flow change = 0.0031 for Link P-430
                        maximum  head error  = 0.0000 for Link P-430

     3:00:00: Balanced after 4 trials
   
     4:00:00: Balancing the network:

              Trial  1: relative flow change = 0.050391
              Trial  2: relative flow change = 0.002584
              Trial  3: relative flow change = 0.000022
                        maximum  flow change = 0.2497 for Link P-439
                        maximum  head error  = 0.0000 for Link P-430

     4:00:00: Balanced after 3 trials
   
     4:48:30: Balancing the network:

              Trial  1: relative flow change = 0.030409
              Trial  2: relative flow change = 0.000581
              Pipe P-539 switched from open to closed
              Trial  3: relative flow change = 0.295525
              Trial  4: relative flow change = 0.058094
              Trial  5: relative flow change = 0.010775
              Trial  6: relative flow change = 0.001285
              Trial  7: relative flow change = 0.000047
                        maximum  flow change = 0.3722 for Link P-528
                        maximum  head error  = 0.0000 for Link P-819

     4:48:30: Balanced after 7 trials
     4:48:30: Tank T-1 is closed at 103.87 ft
     4:48:30: Tank T-4 is filling at 91.97 ft
     4:48:30: Pipe P-539 changed from open to temporarily closed
   
     5:00:00: Balancing the network:

              Trial  1: relative flow change = 0.026421
              Trial  2: relative flow change = 0.000547
              Trial  3: relative flow change = 0.000001
                        maximum  flow change = 0.0051 for Link P-579
                        maximum  head error  = 0.0000 for Link P-928

     5:00:00: Balanced after 3 trials
   
     5:16:08: Balancing the network:

              Trial  1: relative flow change = 0.026382
              Trial  2: relative flow change = 0.000350
              Pipe P-36 switched from open to closed
              Pipe P-541 switched from open to closed
              Trial  3: relative flow change = 0.930505
              Trial  4: relative flow change = 0.137557
              Trial  5: relative flow change = 0.020525
              Trial  6: relative flow change = 0.001069
              Trial  7: relative flow change = 0.000031
                        maximum  flow change = 0.1892 for Link P-273
                        maximum  head error  = 0.0000 for Link P-273

     5:16:08: Balanced after 7 trials
     5:16:08: Tank T-2 is closed at 104.43 ft
     5:16:08: Pipe P-36 changed from open to temporarily closed
     5:16:08: Pipe P-541 changed from open to temporarily closed
   
     6:00:00: Balancing the network:

              Trial  1: relative flow change = 0.248857
              Trial  2: relative flow change = 0.038945
              Trial  3: relative flow change = 0.004330
              Trial  4: relative flow change = 0.000201
              Trial  5: relative flow change = 0.000001
                        maximum  flow change = 0.0051 for Link P-516
                        maximum  head error  = 0.0000 for Link P-516

     6:00:00: Balanced after 5 trials
   
     6:43:38: Pump ~@Pump-1 changed by Tank T-3 control
     6:43:38: Balancing the network:

              Trial  1: relative flow change = 1.168317
              Trial  2: relative flow change = 0.323675
              Trial  3: relative flow change = 0.083301
              Trial  4: relative flow change = 0.011607
              Trial  5: relative flow change = 0.001887
              Trial  6: relative flow change = 0.000791
              Trial  7: relative flow change = 0.000395
              Trial  8: relative flow change = 0.000198
              Trial  9: relative flow change = 0.000099
                        maximum  flow change = 3.3880 for Link ~@Pump-1
                        maximum  head error  = 0.0000 for Link P-530

     6:43:38: Balanced after 9 trials
     6:43:38: Tank T-3 is emptying at 105.75 ft
     6:43:38: Pump ~@Pump-1 changed from open to closed
   
     7:00:00: Balancing the network:

              Trial  1: relative flow change = 0.373569
              Trial  2: relative flow change = 0.067668
              Trial  3: relative flow change = 0.017146
              Trial  4: relative flow change = 0.004704
              Trial  5: relative flow change = 0.000537
              Trial  6: relative flow change = 0.000008
                        maximum  flow change = 0.0529 for Link ~@Pump-1
                        maximum  head error  = 0.0000 for Link P-534

     7:00:00: Balanced after 6 trials
   
     8:00:00: Balancing the network:

              Trial  1: relative flow change = 0.430673
              Trial  2: relative flow change = 0.100102
              Trial  3: relative flow change = 0.017267
              Trial  4: relative flow change = 0.001180
              Trial  5: relative flow change = 0.000008
                        maximum  flow change = 0.0165 for Link P-534
                        maximum  head error  = 0.0000 for Link P-534

     8:00:00: Balanced after 5 trials
     8:00:00: Tank T-4 is emptying at 95.12 ft
   
     9:00:00: Balancing the network:

              Trial  1: relative flow change = 0.086069
              Trial  2: relative flow change = 0.003841
              Trial  3: relative flow change = 0.000013
                        maximum  flow change = 0.0287 for Link P-1051
                        maximum  head error  = 0.0000 for Link P-75

     9:00:00: Balanced after 3 trials
   
    10:00:00: Balancing the network:

              Trial  1: relative flow change = 0.042777
              Trial  2: relative flow change = 0.001038
              Trial  3: relative flow change = 0.000001
                        maximum  flow change = 0.0036 for Link P-430
                        maximum  head error  = 0.0000 for Link P-430

    10:00:00: Balanced after 3 trials
   
    11:00:00: Balancing the network:

              Trial  1: relative flow change = 0.018020
              Trial  2: relative flow change = 0.000317
              Trial  3: relative flow change = 0.000001
                        maximum  flow change = 0.0049 for Link P-430
                        maximum  head error  = 0.0000 for Link P-430

    11:00:00: Balanced after 3 trials
   
    12:00:00: Balancing the network:

              Trial  1: relative flow change = 0.016184
              Trial  2: relative flow change = 0.000046
                        maximum  flow change = 0.1224 for Link P-242
                        maximum  head error  = 0.0000 for Link P-323

    12:00:00: Balanced after 2 trials
   
    13:00:00: Balancing the network:

              Trial  1: relative flow change = 0.025743
              Trial  2: relative flow change = 0.000248
              Trial  3: relative flow change = 0.000001
                        maximum  flow change = 0.0091 for Link P-430
                        maximum  head error  = 0.0000 for Link P-430

    13:00:00: Balanced after 3 trials
   
    14:00:00: Balancing the network:

              Trial  1: relative flow change = 0.014053
              Trial  2: relative flow change = 0.000070
                        maximum  flow change = 0.1614 for Link P-1051
                        maximum  head error  = 0.0000 for Link P-75

    14:00:00: Balanced after 2 trials
   
    15:00:00: Balancing the network:

              Trial  1: relative flow change = 0.006794
              Trial  2: relative flow change = 0.000050
                        maximum  flow change = 0.2039 for Link P-430
                        maximum  head error  = 0.0000 for Link P-430

    15:00:00: Balanced after 2 trials
   
    15:07:09: Pump ~@Pump-1 changed by Tank T-3 control
    15:07:09: Balancing the network:

              Trial  1: relative flow change = 0.213054
              Trial  2: relative flow change = 0.141916
              Trial  3: relative flow change = 0.115096
              Trial  4: relative flow change = 0.046540
              Trial  5: relative flow change = 0.004263
              Trial  6: relative flow change = 0.000041
                        maximum  flow change = 0.0810 for Link P-368
                        maximum  head error  = 0.0000 for Link ~@Pump-1

    15:07:09: Balanced after 6 trials
    15:07:09: Tank T-3 is filling at 90.75 ft
    15:07:09: Tank T-4 is filling at 87.21 ft
    15:07:09: Pump ~@Pump-1 changed from closed to open
   
    16:00:00: Balancing the network:

              Trial  1: relative flow change = 0.156056
              Trial  2: relative flow change = 0.027321
              Trial  3: relative flow change = 0.004652
              Trial  4: relative flow change = 0.000304
              Trial  5: relative flow change = 0.000002
                        maximum  flow change = 0.0127 for Link P-612
                        maximum  head error  = 0.0000 for Link P-612

    16:00:00: Balanced after 5 trials
   
    17:00:00: Balancing the network:

              Trial  1: relative flow change = 0.107699
              Trial  2: relative flow change = 0.015334
              Trial  3: relative flow change = 0.001150
              Trial  4: relative flow change = 0.000015
                        maximum  flow change = 0.0743 for Link P-612
                        maximum  head error  = 0.0000 for Link P-612

    17:00:00: Balanced after 4 trials
   
    18:00:00: Balancing the network:

              Trial  1: relative flow change = 0.071850
              Trial  2: relative flow change = 0.001328
              Trial  3: relative flow change = 0.000020
                        maximum  flow change = 0.1169 for Link P-590
                        maximum  head error  = 0.0000 for Link P-590

    18:00:00: Balanced after 3 trials
   
    19:00:00: Balancing the network:

              Trial  1: relative flow change = 0.089592
              Trial  2: relative flow change = 0.003204
              Trial  3: relative flow change = 0.000132
              Trial  4: relative flow change = 0.000001
                        maximum  flow change = 0.0038 for Link P-1108
                        maximum  head error  = 0.0000 for Link P-1108

    19:00:00: Balanced after 4 trials
   
    20:00:00: Balancing the network:

              Trial  1: relative flow change = 0.046416
              Trial  2: relative flow change = 0.004109
              Trial  3: relative flow change = 0.000234
              Trial  4: relative flow change = 0.000001
                        maximum  flow change = 0.0067 for Link P-618
                        maximum  head error  = 0.0000 for Link P-534

    20:00:00: Balanced after 4 trials
   
    21:00:00: Balancing the network:

              Trial  1: relative flow change = 0.034484
              Trial  2: relative flow change = 0.000750
              Trial  3: relative flow change = 0.000001
                        maximum  flow change = 0.0030 for Link P-226
                        maximum  head error  = 0.0000 for Link P-273

    21:00:00: Balanced after 3 trials
   
    22:00:00: Balancing the network:

              Trial  1: relative flow change = 0.387479
              Trial  2: relative flow change = 0.040000
              Trial  3: relative flow change = 0.003890
              Trial  4: relative flow change = 0.000275
              Trial  5: relative flow change = 0.000004
                        maximum  flow change = 0.0310 for Link P-612
                        maximum  head error  = 0.0000 for Link P-273

    22:00:00: Balanced after 5 trials
   
    23:00:00: Balancing the network:

              Trial  1: relative flow change = 0.335593
              Trial  2: relative flow change = 0.044059
              Trial  3: relative flow change = 0.006208
              Trial  4: relative flow change = 0.000597
              Trial  5: relative flow change = 0.000008
                        maximum  flow change = 0.0185 for Link P-516
                        maximum  head error  = 0.0000 for Link P-663

    23:00:00: Balanced after 5 trials
   
    23:04:14: Pump ~@Pump-1 changed by Tank T-3 control
    23:04:14: Balancing the network:

              Trial  1: relative flow change = 1.196417
              Trial  2: relative flow change = 0.228320
              Trial  3: relative flow change = 0.074031
              Trial  4: relative flow change = 0.018571
              Trial  5: relative flow change = 0.004173
              Trial  6: relative flow change = 0.000931
              Trial  7: relative flow change = 0.000428
              Trial  8: relative flow change = 0.000214
              Trial  9: relative flow change = 0.000107
              Trial 10: relative flow change = 0.000054
                        maximum  flow change = 1.6821 for Link ~@Pump-1
                        maximum  head error  = 0.0000 for Link P-530

    23:04:14: Balanced after 10 trials
    23:04:14: Tank T-3 is emptying at 105.75 ft
    23:04:14: Pump ~@Pump-1 changed from open to closed
   
    24:00:00: Balancing the network:

              Trial  1: relative flow change = 0.720541
              Trial  2: relative flow change = 0.144415
              Trial  3: relative flow change = 0.048531
              Trial  4: relative flow change = 0.008870
              Trial  5: relative flow change = 0.000435
              Trial  6: relative flow change = 0.000002
                        maximum  flow change = 0.0263 for Link ~@Pump-1
                        maximum  head error  = 0.0000 for Link P-534

    24:00:00: Balanced after 6 trials
    24:00:00: Tank T-3 is filling at 102.70 ft
    24:00: